Circuit: * C:\Users\maxch\OneDrive\Desktop\git\AIC\hspice\oscillator\Oscillator.asc

Direct Newton iteration for .op point succeeded.

Date: Mon Jan 01 01:03:35 2018
Total elapsed time: 0.165 seconds.

tnom = 27
temp = 27
method = modified trap
totiter = 4701
traniter = 4690
tranpoints = 1822
accept = 1488
rejected = 334
matrix size = 38
fillins = 46
solver = Normal
Matrix Compiler1: 4.12 KB object code size  1.2/0.7/[0.4]
Matrix Compiler2: 3.89 KB object code size  0.6/0.8/[0.4]

